_temp_cenario_1p20/LineSummary.csv
line,maxCurrentA,normAmps,maxLoadingPct,meanLoadingPct,overloadHours
rbt_1607347,93.19431633131846,124.95,74.58528717992674,25.7471356736076,0
sbt_7584,93.19432642069077,163.8,56.895193175024886,19.64044482477548,0
sbt_22840,93.19432180023365,163.8,56.895190354232994,19.64044474938298,0
rbt_630758,30.832489912444228,76.65,40.22503576313663,17.811556092771017,0
rbt_637576,24.665719440462837,61.95,39.81552774893113,14.765450890521933,0
rbt_632607,49.006200940360564,124.95,39.22064901189321,18.461769174795876,0
rbt_1130761,30.42819233051651,90.3,33.6967799894978,15.859265587560513,0
rbt_606147,25.292424936433367,76.65,32.99729280682761,12.486866331407219,0
rbt_605836,25.829499443042465,90.3,28.604096836148912,13.472165497404236,0
rbt_637360,17.661410605708703,61.95,28.50913737806086,13.394196517989242,0
rbt_637918,17.623867605923913,61.95,28.448535279941744,11.429938822656672,0
rbt_626476,15.259793383045418,61.95,24.632434839459915,11.590566589481021,0
rbt_1607350,21.935760281224358,90.3,24.292093334689213,8.845732007409628,0
rbt_606126,13.522538864959747,61.95,21.82814990308272,7.8487393607415425,0
rbt_3405844,18.94162012909628,90.3,20.97632350951969,7.268761701985575,0
rbt_1633671,12.992212433974274,61.95,20.97209432441368,10.406478442246076,0
rbt_1627323,15.01890519423868,76.65,19.59413593507982,9.219301488959237,0
rbt_606143,14.824943541717003,76.65,19.341087464731903,6.89166381652501,0
sbt_34378,24.656761049750195,128.1,19.24805702556612,9.445167211710288,0
sbt_34379,24.579793563354286,128.1,19.18797311737259,9.309572711740895,0
rbt_637397,11.714906339102011,61.95,18.910260434385812,8.888059307891316,0
rbt_635862,10.774434562092488,61.95,17.39214618578287,5.99758578457712,0
rbt_3435739,13.115196857747895,76.65,17.110498183624127,8.495358367520845,0
rbt_605816,10.170574018637051,61.95,16.417391474797498,6.288691485351461,0
smt_29422,26.143993522311394,163.8,15.96092400629511,9.77868203776679,0
smt_19119,26.14139960905537,163.8,15.959340420668722,9.779486640759385,0
smt_17184,26.140218606783648,163.8,15.958619418060835,9.778973924068561,0
sbt_24791,25.292446203286513,163.8,15.441053848160264,5.84321373116066,0
sbt_3174,25.292437341701245,163.8,15.441048438157045,5.843215341857238,0
rbt_609688,11.16467901398801,76.65,14.565791277218537,5.384886878651763,0
rbt_1638954,8.578484786730758,61.95,13.847433069783305,6.509386400149476,0
rbt_1607265,12.050358106206405,90.3,13.34480410432603,6.280828255558371,0
rbt_606139,9.29729531123828,76.65,12.129543785046678,4.399183911128997,0
sbt_9361,25.829499525120646,216.3,11.94151619284357,5.6243020761909035,0
rbt_623004,7.222613790643951,61.95,11.658779323073366,4.638491824476733,0
rbt_606121,6.961822182654946,61.95,11.237808204447047,5.280206669313325,0
sbt_11363,18.0138932868385,163.8,10.997492849107752,4.169925847146125,0
rbt_1605991,6.657592077745351,61.95,10.74671844672373,5.052746802749085,0
rbt_1607280,6.604935440400875,61.95,10.661719839226594,5.010686723785922,0
sbt_34393,13.288401619398432,128.1,10.373459499920711,6.820009351559161,0
rbt_606114,9.030053307734356,90.3,10.000059034035832,4.700675802652925,0
rbt_627337,8.789999720848034,90.3,9.734218959964599,4.577722407267013,0
rbt_1621994,8.623770601056352,90.3,9.5501335559871,4.488158417494407,0
rbt_626678,8.425015451929536,90.3,9.330028185968478,4.388031141527243,0
rbt_635543,5.769887812808605,61.95,9.313781780159168,3.7848883429477436,0
rbt_606150,5.734882459842543,61.95,9.257275964233322,4.348998585468464,0
rbt_1607272,8.253816608674736,90.3,9.140439212264381,4.301160709738535,0
smt_34713,26.127125606137362,286.65,9.114643504670282,5.584755523916659,0
smt_34700,26.12697199143635,286.65,9.114589915030995,5.584717833926909,0
smt_34701,26.126608100435686,286.65,9.114462968929248,5.584628570242651,0
smt_34715,26.126296912507126,286.65,9.114354408689037,5.584552255485228,0
smt_34702,26.125988684145998,286.65,9.114246880916099,5.584476685314601,0
smt_34703,26.125566466408134,286.65,9.114099587095112,5.584373198079386,0
smt_34704,26.12505887259173,286.65,9.11392250918951,5.584248831252858,0
smt_34716,26.124741613093597,286.65,9.11381183083677,5.584171124497849,0
smt_34705,26.124422624696034,286.65,9.11370054934451,5.584093014218187,0
smt_34717,26.12404251108842,286.65,9.11356794386479,5.583999962420008,0
smt_34706,26.123657635900024,286.65,9.113433677271944,5.583905774013123,0
smt_34707,26.123204460593104,286.65,9.113275583671063,5.5837949081903195,0
smt_34708,26.122782219131594,286.65,9.113128281573903,5.5836916464711805,0
smt_34709,26.12223729524497,286.65,9.112938180793643,5.583558433875698,0
smt_34718,26.121933722609526,286.65,9.112832277205488,5.583484247546472,0
smt_34710,26.121636844710718,286.65,9.112728709126364,5.583411714797378,0
smt_34719,26.12132633455107,286.65,9.112620385330917,5.583335869980757,0
smt_34711,26.121016819021015,286.65,9.112512408519455,5.583260286974688,0
smt_34720,26.12066390562725,286.65,9.112389292038113,5.583174129304958,0
smt_34712,26.12033831726024,286.65,9.112275708097068,5.5830946642889145,0
smt_34721,26.120104682519774,286.65,9.112194202867531,5.583037655548382,0
smt_34714,26.1200950772451,286.65,9.112190851995502,5.5830353116340055,0
rbt_623007,5.640051202214413,61.95,9.104198873631013,4.277694298635855,0
sbt_22748,19.52120584176842,216.3,9.025060490877678,4.2469589866815385,0
sbt_7427,19.52119769148352,216.3,9.02505672283103,4.246955083150586,0
sbt_34383,11.547855122468532,128.1,9.014719065158886,5.310889771106926,0
sbt_34392,11.547852003741161,128.1,9.014716630555162,5.652225145490918,0
sbt_34384,11.532946981632525,128.1,9.003081172234603,4.3492085285539,0
rbt_1630759,6.825078721004635,76.65,8.904212290938858,4.188702969335725,0
rbt_606122,5.512200618017037,61.95,8.897821820850744,4.182355763410377,0
rbt_1229546,8.00081611852751,90.3,8.860261482311751,4.1671153677322055,0
rbt_1638606,5.45853220577206,61.95,8.811190001246262,4.1433303733723825,0
rbt_605905,7.808933199916571,90.3,8.647766555832305,4.0654224355137805,0
rbt_1607283,7.730368156173514,90.3,8.560762077711532,4.027547492480082,0
smt_31417,27.90014173536507,327.6,8.51652678124697,5.242129218736558,0
smt_31416,27.900093685101506,327.6,8.516512113889348,5.242118895381784,0
smt_31411,27.900075372133323,327.6,8.51650652385022,5.24211496152159,0
smt_31412,27.900054650763003,327.6,8.516500198645605,5.242110509775274,0
smt_31413,27.8999317796444,327.6,8.516462692199145,5.24208411450005,0
smt_31414,27.899839442941257,327.6,8.516434506392324,5.242064280269157,0
smt_31415,27.89960546858708,327.6,8.51636308564929,5.242014027620295,0
smt_4387,27.899220690550806,327.6,8.516245632036265,5.241931404158762,0
smt_4863,27.89877670929505,327.6,8.516110106622419,5.241836096677334,0
smt_4693,27.898404224490235,327.6,8.51599640552205,5.24175616070708,0
smt_17964,27.89817802716708,327.6,8.51592735872011,5.233017825226585,0
smt_4591,27.898063812372893,327.6,8.515892494619319,5.241683126546836,0
smt_6826,27.89771514842371,327.6,8.515786064842402,5.23291796933644,0
smt_4627,27.897702546862266,327.6,8.515782218211925,5.241605638101702,0
smt_4527,27.89741357864029,327.6,8.515694010573958,5.2415436715083095,0
smt_7012,27.89718081647251,327.6,8.515622959851193,5.232802740703263,0
smt_23134,27.896943804156844,327.6,8.515550611769488,5.241442960439638,0
smt_22791,27.896701985469164,327.6,8.51547679654126,5.232699518769965,0
smt_18545,27.896522590021586,327.6,8.515422036026123,5.241352689094604,0
smt_7020,27.896143001741418,327.6,8.515306166587735,5.232579063637841,0
smt_10381,27.896076316510328,327.6,8.515285810900588,5.2412570773497125,0
smt_18806,27.895850864117303,327.6,8.515216991488797,5.241208787126408,0
smt_24122,27.89577748748789,327.6,8.515194593250271,5.241193072685896,0
smt_6842,27.895712870689863,327.6,8.515174868952949,5.232486408192977,0
smt_6830,27.895060319734487,327.6,8.514975677574629,5.232345896027498,0
smt_31407,27.894275436115006,327.6,8.514736091610196,5.232176977188037,0
smt_29390,27.89390390834103,327.6,8.51462268264378,5.232187242245322,0
smt_31408,27.893794739694794,327.6,8.514589358881194,5.24058344028897,0
smt_17776,27.89327310203658,327.6,8.514430128826794,5.232050364578799,0
smt_10747,27.892631164177054,327.6,8.514234177099222,5.23191113548447,0
smt_18202,27.89207368004969,327.6,8.514064004899174,5.2317902758369685,0
smt_17794,27.891556340025478,327.6,8.513906086698864,5.231678162763072,0
smt_29420,27.891236671849974,327.6,8.513808507890712,5.231608908195285,0
smt_22739,27.891049853714073,327.6,8.513751481597701,5.231568442387665,0
smt_17795,27.890433850021203,327.6,8.513563446282419,5.231435051347402,0
smt_29389,27.889746594905198,327.6,8.513353661448471,5.2312863014186695,0
smt_19163,27.889154375726903,327.6,8.513172886363524,5.2311581804268945,0
smt_17961,27.888776915191674,327.6,8.513057666419924,5.231076549043303,0
smt_29388,27.888341569146437,327.6,8.512924776906726,5.230982426754073,0
smt_17962,27.887806489268797,327.6,8.512761443610744,5.230866782488682,0
rbt_1107340,7.401268591874925,90.3,8.19631073297334,3.8573210345258535,0
rbt_1626486,7.400752486268669,90.3,8.19573918745146,3.8514793600056674,0
rbt_605822,7.400526321221787,90.3,8.195488727820363,3.8571032413445763,0
rbt_1607287,7.393959904637931,90.3,8.18821694865773,3.851768287628363,0
smt_6447,26.205877593152124,327.6,7.99935213466182,4.903278262491495,0
smt_6627,26.205484703680717,327.6,7.999232205030743,4.903195263756483,0
smt_24630,26.2048583129008,327.6,7.9990409990539675,4.903062991807244,0
smt_24629,26.204471794656538,327.6,7.998923014241923,4.9029814059534225,0
smt_24628,26.203956455354408,327.6,7.998765706762639,4.90287266832804,0
smt_24627,26.203573836525827,327.6,7.99864891224842,4.9027919642246705,0
smt_6957,26.203215897407702,327.6,7.998539651223352,4.902716488313465,0
smt_6431,26.20277042276864,327.6,7.998403669953796,4.90262258492364,0
smt_24626,26.202399687599673,327.6,7.998290502930303,4.902544461957516,0
smt_12228,26.20199658500143,327.6,7.998167455739143,4.9024595449551285,0
rbt_606132,4.945634283742003,61.95,7.983267608945929,3.7509627366793414,0
smt_6510,26.15134595977372,327.6,7.982706336927264,4.890900402080539,0
smt_19223,26.15080283891413,327.6,7.982540549119086,4.890784894100808,0
smt_22843,26.15034052799047,327.6,7.982399428568519,4.890686612202602,0
smt_6737,26.149937275750062,327.6,7.982276335699042,4.890600915455379,0
smt_24665,26.149411777149876,327.6,7.982115927090925,4.890489281481458,0
smt_24635,26.148868865101,327.6,7.981950203022283,4.89037399804917,0
smt_24637,26.14830707087556,327.6,7.981778715163479,4.890254758331351,0
smt_24636,26.147757660652356,327.6,7.981611007525139,4.890138199448757,0
smt_19174,26.147257416802038,327.6,7.98145830793713,4.890032116360568,0
smt_6686,26.14666725464295,327.6,7.98127816075792,4.889907020120949,0
smt_19173,26.145674769308336,327.6,7.9809752043065725,4.88969677834232,0
smt_19172,26.145339379761353,327.6,7.98087282654498,4.889625769709155,0
smt_6544,26.144973399772624,327.6,7.980761111041704,4.889548306490878,0
smt_6535,26.14443243162956,327.6,7.980595980350904,4.8894338473449706,0
smt_24634,26.14324976660144,327.6,7.98023497149006,4.889183790966443,0
smt_24633,26.142827702733992,327.6,7.980106136365688,4.889094609749344,0
smt_24632,26.142373662159702,327.6,7.9799675403417885,4.888998706026396,0
smt_1873,26.14192677281053,327.6,7.97983112723154,4.888904347297803,0
smt_24631,26.14152632389873,327.6,7.979708890078976,4.888819823313949,0
smt_6527,26.14111027848246,327.6,7.979581892088664,4.888732036414012,0
smt_24511,26.140870326789866,327.6,7.9795086467612535,4.889628399911415,0
smt_29446,26.140204371496296,327.6,7.979305363704607,4.889483873224251,0
smt_32671,26.139765144796456,327.6,7.979171289620407,4.889388593839394,0
smt_6389,26.13928028923147,327.6,7.9790232873111915,4.889283455186541,0
smt_24510,26.13926539804792,327.6,7.97901874177287,4.889280226714276,0
smt_24509,26.13874988243561,327.6,7.97886138047485,4.88916848582055,0
smt_24508,26.138297982936145,327.6,7.978723438014695,4.889070571974519,0
smt_6426,26.137890589454095,327.6,7.978599081029943,4.888982331674544,0
smt_6420,26.137475221245836,327.6,7.978472289757581,4.88889239369539,0
smt_6140,26.137026360540123,327.6,7.9783352748901475,4.888795237355311,0
smt_6653,26.136598207826264,327.6,7.978204581143547,4.888702595820512,0
smt_6650,26.13617632077959,327.6,7.9780757999937695,4.888611341125662,0
smt_29445,26.135762462786122,327.6,7.977949469714933,4.888521853042627,0
smt_24507,26.135336700225004,327.6,7.977819505563187,4.888429821865363,0
smt_24506,26.134912372228918,327.6,7.977689979312856,4.888338132015608,0
smt_24505,26.134474475816656,327.6,7.977556311299345,4.888243542963611,0
smt_24459,26.134098733282073,327.6,7.977441615775968,4.888162406153292,0
smt_24458,26.133646134327602,327.6,7.97730345980696,4.888064705627547,0
smt_24457,26.13319068674851,327.6,7.977164434294417,4.887966425989126,0
smt_24456,26.132771870794006,327.6,7.977036590596461,4.887876082704893,0
smt_24455,26.132341900572296,327.6,7.976905342055035,4.887783364911308,0
smt_24454,26.131929380655986,327.6,7.97677942022466,4.887694440157022,0
smt_19165,26.131473873814336,327.6,7.976640376622202,4.8875962831595094,0
smt_17113,26.13099758525538,327.6,7.976494989394194,4.887493686329805,0
smt_6993,26.129952570742617,327.6,7.976175998395181,4.887268718444022,0
smt_24453,26.129318435130934,327.6,7.975982428306145,4.887132295543939,0
smt_24452,26.128827592579494,327.6,7.9758325984674885,4.887026747313138,0
smt_24451,26.128397384729407,327.6,7.975701277389928,4.886934271887739,0
smt_24450,26.127990986334574,327.6,7.9755772241558525,4.886846943796982,0
smt_6394,26.127546365645404,327.6,7.975441503554763,4.886751435101515,0
smt_24668,26.120083980073755,327.6,7.973163608081121,4.885153528148055,0
smt_29393,26.11990977108409,327.6,7.973110430733849,4.885116339602587,0
smt_19218,26.118445502960842,327.6,7.9726634624422585,4.884803967547664,0
smt_6502,26.11793591722692,327.6,7.972507911241427,4.88469534424563,0
smt_24667,26.11766960442291,327.6,7.972426619176712,4.884638594769413,0
smt_6683,26.116953534811714,327.6,7.972208038709313,4.884486065623925,0
smt_19220,26.11637247150136,327.6,7.972030668956459,4.8843623588432115,0
smt_22844,26.115968345022154,327.6,7.971907309225321,4.884276355633348,0
smt_6687,26.11552426482368,327.6,7.971771753609182,4.884181882165842,0
smt_24666,26.11519132573314,327.6,7.9716701238501635,4.8841110750770325,0
rbt_623433,7.160322872082044,90.3,7.929482693335597,3.7311782870222454,0
rbt_626698,7.112834204706927,90.3,7.876892806984416,3.702293853547807,0
rbt_1607252,5.992443076394297,76.65,7.817929649568554,3.6768156231581384,0
rbt_637356,4.684030850566628,61.95,7.560986038041367,3.554346118537518,0
rbt_631391,6.741422780645423,90.3,7.465584474690392,5.654114945005564,0
rbt_605855,5.558212347590424,76.65,7.251418587854435,3.41109250264633,0
rbt_1607255,6.492776635716948,90.3,7.190228832466166,3.38011051196472,0
rbt_636933,5.405166216443559,76.65,7.051749793142282,3.3182930130527963,0
rbt_605910,4.246706986281491,61.95,6.855055667928153,3.2201752350528863,0
rbt_627343,6.148309173195529,90.3,6.808758774302912,3.199478209396309,0
rbt_1607304,4.131419332982635,61.95,6.6689577610696285,3.1319195156518886,0
rbt_1607305,5.835266694812878,90.3,6.462089363026443,3.038235660883363,0
rbt_1607285,3.9651754108899264,61.95,6.400605990137088,3.0051617975379883,0
rbt_606103,4.816521458620047,76.65,6.283785334142265,2.9539221987188298,0
rbt_3405846,4.800542503339736,76.65,6.262938686679369,2.945247988816158,0
rbt_606109,3.8242459174203742,61.95,6.173116896562347,2.900106037396576,0
rbt_605825,5.5716080139471185,90.3,6.170108542577097,2.901504252780087,0
sbt_4580,10.020820539868117,163.8,6.1177170573065425,2.87882268323731,0
rbt_1631852,5.515842857524585,90.3,6.108353109108068,2.8712596207395116,0
rbt_605993,5.48398132066881,90.3,6.07306901513711,2.8542018681872743,0
rbt_621999,5.443882642974342,90.3,6.028662949030279,2.8338884259226376,0
rbt_630753,5.439846541535015,90.3,6.024193290736451,2.833164399159965,0
sbt_28279,12.992224606890733,216.3,6.006576332358176,2.980496227059016,0
sbt_20214,12.99221717535587,216.3,6.006572896604656,2.9804965159835266,0
sbt_6049,9.829181349856638,163.8,6.000721214808692,2.8240241647955386,0
smt_6110,19.413888025386026,327.6,5.92609524584433,3.3736709457952467,0
rbt_607384,3.60176075917595,61.95,5.813980240800564,2.7317042999353274,0
rbt_1607278,4.449618329482758,76.65,5.805111975841823,2.7278063021305576,0
rbt_1628760,5.225418143240062,90.3,5.786731055636835,2.719039509125709,0
smt_24515,18.933668679553133,327.6,5.7795081439417375,3.3469059759210005,0
smt_6552,18.93327341793917,327.6,5.779387490213421,3.34681067558614,0
smt_6549,18.932751146403263,327.6,5.779228066667661,3.346684806926526,0
smt_23959,18.93229507665703,327.6,5.779088851238409,3.346574943929049,0
smt_22744,18.931747924974527,327.6,5.778921833020307,3.3464432027251547,0
smt_19175,18.931292842502824,327.6,5.778782918956906,3.346333681676724,0
smt_19177,18.93077464249991,327.6,5.778624738247835,3.3462090281829564,0
smt_19176,18.930230003120503,327.6,5.7784584869110205,3.346078080780775,0
smt_19164,18.929992854719746,327.6,5.7783860972892995,3.346021084474774,0
smt_32311,18.929584780336352,327.6,5.7782615324592035,3.3459230378461005,0
smt_39119,18.92909529065541,327.6,5.778112115584679,3.345805480730274,0
smt_32312,18.929072307690426,327.6,5.778105100027602,3.345799962688858,0
smt_32310,18.92905356876368,327.6,5.778099379964493,3.3457954625845603,0
smt_32309,18.928600606119453,327.6,5.777961112979075,3.34568673048401,0
smt_32314,18.92839351331913,327.6,5.777897897838562,3.345637033513558,0
smt_32313,18.92837778419622,327.6,5.777893096518992,3.3456332599601346,0
smt_6802,18.92819745409499,327.6,5.777838050700546,3.4055556136256797,0
smt_24514,18.927631776918126,327.6,5.777665377569635,3.405420575603195,0
smt_24513,18.92704427859793,327.6,5.777486043528061,3.4052804029674757,0
smt_19166,18.926583261778394,327.6,5.777345318003172,3.4051704610446785,0
smt_6414,18.92613322674634,327.6,5.777207944672265,3.4050631831812166,0
smt_18852,18.9256777384314,327.6,5.777068906725091,3.404954650824575,0
smt_6403,18.925172321249804,327.6,5.776914627976129,3.4048342750390095,0
smt_1832,18.92473293411825,327.6,5.7767805049201,3.4047296714730675,0
smt_1831,18.924304852893485,327.6,5.7766498329955684,3.4046278003867276,0
smt_1829,18.923464364668448,327.6,5.776393273708317,3.4044279058345475,0
smt_1828,18.922855917418904,327.6,5.776207544999664,3.4042832952027275,0
rbt_3433894,5.194728952347859,90.3,5.752745240695304,2.7047615819019444,0
smt_6350,18.82804903551516,327.6,5.747267715358718,3.3297660820916604,0
smt_24517,18.82582670107957,327.6,5.746589347093885,3.3294523062525117,0
smt_24520,18.82514555496513,327.6,5.746381427034533,3.3292879677252176,0
smt_19116,18.824823910850125,327.6,5.746283245070245,3.3292104022934037,0
rbt_1607357,4.3826362492665965,76.65,5.717725047966858,2.6874150159922348,0
rbt_605806,4.787476985695829,90.3,5.301746385045215,2.4916137790451462,0
rbt_622714,4.7146002151542605,90.3,5.2210412127954156,2.4552751845458864,0
smt_6066,8.480328777657807,163.8,5.177245896005987,3.0045337715231017,0
smt_6062,8.479900095640328,163.8,5.176984185372605,3.0044213182697015,0
smt_6719,8.479426576036715,163.8,5.176695101365516,3.004297576102769,0
smt_6176,8.478892548663012,163.8,5.176369077327846,3.004157359976531,0
smt_6144,8.478393594013697,163.8,5.176064465209827,3.0040274619536067,0
smt_6227,8.477864438055507,163.8,5.1757414151743015,3.0038895691645604,0
smt_19063,8.477352982111784,163.8,5.175429171008415,3.0037568484236057,0
smt_6092,8.47684586691283,163.8,5.17511957686986,3.003624883229763,0
smt_29474,8.476406383148172,163.8,5.17485127176323,3.003512202591022,0
smt_29473,8.475914247424019,163.8,5.1745508226031856,3.0033856684014917,0
smt_19115,8.475421737316605,163.8,5.174250144881932,3.0032580359792864,0
smt_24512,8.475033299901833,163.8,5.174013003603072,3.0031537710863923,0
rbt_1607258,3.941063489506255,76.65,5.141635341821598,2.4181367831218448,0
smt_37840,8.371121795128936,163.8,5.110574966501182,2.975885970993218,0
smt_6474,8.370771785569792,163.8,5.110361285451643,2.9757943681033683,0
smt_19061,8.370338092033201,163.8,5.110096515282784,2.9756801215055897,0
smt_29476,8.369914263587818,163.8,5.109837767758131,2.97556973360352,0
smt_6594,8.369396580910221,163.8,5.109521722167412,2.975434264498215,0
smt_29475,8.368874425409834,163.8,5.109202945915649,2.975297289262755,0
smt_19011,8.368424194890668,163.8,5.108928079908832,2.9751808046874544,0
smt_19014,8.367907928799747,163.8,5.108612899145144,2.9750468181460294,0
rbt_627328,4.601425672937663,90.3,5.095709493840158,2.398579676844905,0
sbt_5830,8.26848712878888,163.8,5.047916440042051,2.3753651109939287,0
rbt_621168,3.829562981268906,76.65,4.996168273018794,2.348460118528815,0
rbt_605815,4.493796816417447,90.3,4.976519176542023,2.340415248340484,0
rbt_1107330,4.492544539886224,90.3,4.975132380826384,2.3416556285313863,0
rbt_621171,3.0748071938603467,61.95,4.963369158773764,2.331855763607926,0
rbt_3422597,4.473539517250555,90.3,4.95408584413129,2.330099957138508,0
rbt_606127,3.052087387425167,61.95,4.926694733535378,2.314665019563737,0
rbt_635966,3.0351607682154618,61.95,4.899371700105668,2.3020702294022275,0
rbt_1124041,4.41379996409661,90.3,4.887929085378306,2.299038811078416,0
rbt_605921,3.6373701433402537,76.65,4.745427453803331,2.230767464260007,0
sbt_14007,7.7303678741982935,163.8,4.719394306592364,2.220314463060554,0
sbt_25907,10.170598387433204,216.3,4.702079698304764,1.8011297633139636,0
sbt_21361,10.170591688361222,216.3,4.702076601184106,1.8011298630763992,0
sbt_20771,10.170586338957479,216.3,4.702074128043217,1.8011320085280322,0
rbt_627336,4.2224097147830095,90.3,4.675979750590265,2.1971558662401836,0
rbt_1627321,4.206512034969423,90.3,4.658374346588508,2.189868180117118,0
rbt_1607355,4.188704254948481,90.3,4.638653659965096,2.1803998241355536,0
rbt_605902,2.8732126081393052,61.95,4.637954169716393,2.1795111475546567,0
sbt_35173,5.835266300072109,128.1,4.555243013327174,2.1417067858952956,0
rbt_1607358,3.4877109159251125,76.65,4.550177320189317,2.1390548098257187,0
sbt_21952,9.829180524751754,216.3,4.544235101595818,2.13858092826708,0
sbt_20840,7.400526310203697,163.8,4.518025830405187,2.1263517338784816,0
sbt_6273,7.393959602098966,163.8,4.51401685109827,2.123410529924526,0
smt_6536,12.855703013975404,286.65,4.4848083076837275,2.635391325527498,0
smt_6703,12.855104932193363,286.65,4.484599662373404,2.6352460651102545,0
smt_6514,12.854518346808778,286.65,4.484395027667461,2.6351037483816957,0
smt_6984,12.854428800552682,286.65,4.484363788785168,2.635082035750312,0
smt_5854,12.853517588289218,286.65,4.4840459055605155,2.634861291715368,0
smt_5855,12.852834737771428,286.65,4.483807688041663,2.634696106871456,0
smt_5657,12.852274963315473,286.65,4.4836124065290335,2.634560846942548,0
smt_21743,12.851684723884684,286.65,4.483406497081697,2.6344183743368093,0
smt_22741,12.851079840252485,286.65,4.483195478894989,2.6342725254225616,0
smt_6098,12.850599205348624,286.65,4.483027805807998,2.6341567497620706,0
smt_19120,12.850041755615381,286.65,4.482833335292302,2.6340225980603496,0
smt_22740,12.849489929477539,286.65,4.482640826609991,2.6338899343136974,0
smt_22738,12.833460402135753,286.65,4.477048805908165,2.628057797749903,0
smt_6754,12.832958247308357,286.65,4.476873625434627,2.627935943257759,0
smt_6567,12.832447710223708,286.65,4.476695520747849,2.6278121674653447,0
smt_6746,12.831940124347772,286.65,4.47651844561234,2.6276892200616184,0
smt_6812,12.831441226747195,286.65,4.47634440144678,2.627568486946501,0
rbt_3405838,4.017110108499743,90.3,4.448626919711787,2.0935890578721197,0
rbt_622273,2.557087014752235,57.75,4.427856302601272,2.08441765097325,0
rbt_1107341,2.7390545296336275,61.95,4.421395528060739,2.08015985881424,0
rbt_638617,2.7283200292592014,61.95,4.404067843840519,2.0718783064005275,0
rbt_605828,3.968671791760447,90.3,4.394985372935158,2.0684995192198885,0
rbt_1607292,3.8932560482774154,90.3,4.311468492001567,2.027310434844992,0
rbt_1626490,3.851470312592087,90.3,4.265194144620251,3.2305694906959146,0
rbt_1635060,2.642096667806182,61.95,4.264885662318292,2.0056722437802557,0
sbt_37156,6.961821970154224,163.8,4.250196562975717,1.9970011092385205,0
rbt_605867,3.829321779189471,90.3,4.2406664221367345,1.9942021004962276,0
sbt_4615,6.8663178189772704,163.8,4.191891220376844,1.973641732407726,0
sbt_3373,6.866316638328163,163.8,4.191890499589842,1.973640943860408,0
sbt_20793,6.866315552586257,163.8,4.191889836743747,1.9736402255222778,0
sbt_4010,6.866313865808634,163.8,4.191888806964977,1.9736391217805702,0
sbt_28804,6.8663123304187295,163.8,4.191887869608504,1.9736381293068082,0
rbt_605812,3.7391126211668433,90.3,4.14076702233316,1.9489960982116763,0
rbt_632613,3.736030132517242,90.3,4.137353413640357,1.94622903506547,0
rbt_622713,3.7175991710407854,90.3,4.11694260358891,1.9346413772213715,0
rbt_606120,2.5385839389909752,61.95,4.097794897483414,1.9247965356658883,0
sbt_26269,8.789999357125291,216.3,4.063799980178128,1.911087821709015,0
smt_7052,6.5812124374207555,163.8,4.017834210879582,2.1551335074025086,0
rbt_1132019,3.6194350888133506,90.3,4.008233763912902,1.8847610169783575,0
rbt_605863,3.6018610401309026,90.3,3.988771915981066,1.876129751102443,0
rbt_634166,3.0271948081428897,76.65,3.9493735266052052,1.8559363298518659,0
rbt_1138614,2.4301677330816305,61.95,3.922788915386005,1.8445836222216958,0
sbt_4118,11.164686511056916,286.65,3.8948845320275307,1.4399152824505927,0
rbt_605803,3.4982562066837777,90.3,3.8740378811558998,1.8212447437569734,0
smt_37837,8.37171025888161,216.3,3.870416208451969,2.2537015684738884,0
smt_37841,8.371344279625049,216.3,3.8702470086107486,2.2536272458066393,0
rbt_605834,3.4725847521035416,90.3,3.845608806316214,1.8106126961700506,0
rbt_605904,2.376654125728013,61.95,3.836406982611805,1.801289958060129,0
smt_29484,6.281647934974583,163.8,3.834949899251882,1.8996686175750037,0
smt_22951,6.281634523687632,163.8,3.834941711653011,1.8996603526090077,0
smt_19381,6.280305519445712,163.8,3.8341303537519607,1.8988425024982225,0
smt_18804,6.27961356220496,163.8,3.8337079134340417,1.898417523033704,0
smt_19380,6.278820540075033,163.8,3.8332237729395806,1.8979311841731594,0
smt_5349,6.278185123899002,163.8,3.8328358509761915,1.8975420513204047,0
smt_18803,6.277539698006107,163.8,3.832441818074546,1.8971472915481373,0
smt_13454,6.276880618135932,163.8,3.8320394494114356,1.896744705571039,0
smt_19377,6.276097109834987,163.8,3.8315611171153763,1.8962668075331812,0
smt_29411,6.27511200378913,163.8,3.830959709272973,1.8956670176384742,0
smt_8954,6.274506703518485,163.8,3.830590173088208,1.8952990702623567,0
smt_5584,6.273801059958734,163.8,3.830159377264184,1.8948707002662681,0
rbt_605810,2.9310286142456383,76.65,3.823912086426142,1.7973309184169521,0
rbt_605864,3.443768539793861,90.3,3.813697164777255,1.793809368137681,0
rbt_609682,2.9029931533349003,76.65,3.7873361426417484,1.7818872279981124,0
rbt_622703,2.3295387908373915,61.95,3.7603531732645545,2.8486507049673357,0
rbt_605835,3.3937339141894722,90.3,3.758287834096868,1.769482560961474,0
sbt_14006,6.144888107420226,163.8,3.751457941037989,1.7642852690080204,0
smt_25186,6.062836607461998,163.8,3.7013654502209996,2.0007345078700043,0
sbt_27416,8.000815991688752,216.3,3.6989440553346054,1.7396694618720991,0
sbt_15213,8.000815936359885,216.3,3.6989440297549163,1.7396694499162697,0
rbt_606128,2.820203121069043,76.65,3.6793256634951637,1.7291749613268557,0
rbt_1607257,3.2924172023115412,90.3,3.6460877102010425,1.7139808514394204,0
rbt_607385,3.285660006203743,90.3,3.638604658032938,1.711503793183498,0
rbt_3405845,3.2751001722309607,90.3,3.6269104897352835,1.7073876479569752,0
rbt_633056,3.2709324368480672,90.3,3.622295057417572,1.7031852368919644,0
rbt_606141,3.2670355220407603,90.3,3.6179795371436994,1.703338989474762,0
rbt_623015,3.2586495240270192,90.3,3.608692717637895,2.7334326762548042,0
sbt_34389,4.601424430788759,128.1,3.5920565423799835,2.7643913291894364,0
smt_37855,7.732265275785519,216.3,3.574787459910087,1.9500543968928759,0
smt_37854,7.731881855656664,216.3,3.5746101967899504,1.9500082824414215,0
smt_37853,7.731528986433724,216.3,3.5744470579906253,1.949967786360487,0
smt_37852,7.731166753970406,216.3,3.574279590370044,1.9499249956102929,0
smt_37851,7.73082554033498,216.3,3.5741218401918537,1.949886462246691,0
smt_37850,7.730470595041809,216.3,3.5739577415819737,1.9498458436244057,0
smt_37849,7.730117064468119,216.3,3.5737942970264074,1.9498062718804592,0
smt_37848,7.729750869550107,216.3,3.5736249974804006,1.9497648103361211,0
smt_37847,7.729386015264816,216.3,3.573456317736854,1.949718492148185,0
smt_37846,7.7291295560803235,216.3,3.5733377513085176,1.9496943594297118,0
smt_37845,7.728779471551055,216.3,3.5731758999311394,1.9496564964648175,0
smt_38000,7.728406277946248,216.3,3.5730033647463,1.9496122991215972,0
smt_38002,7.7280901938504405,216.3,3.572857232478243,1.9495619659060912,0
smt_38001,7.7280819979094675,216.3,3.57285344332384,1.9495613432615568,0
smt_37843,7.728069553831661,216.3,3.5728476901672033,1.9495765895250858,0
smt_37842,7.727725284379574,216.3,3.5726885272212545,1.9495304350519682,0
smt_37838,7.727547349714654,216.3,3.5726062643156054,1.9495164420533693,0
rbt_605982,3.192055995821269,90.3,3.5349457318064994,1.6633118298162384,0
rbt_1606000,3.1909940263536165,90.3,3.533769685884404,1.6614893517417733,0
rbt_1629639,3.177596020286322,90.3,3.5189324698630364,1.6533482888265134,0
sbt_3952,5.743422433336502,163.8,3.5063629019148363,1.6502750927715064,0
sbt_4120,5.743421033996942,163.8,3.50636204761718,1.6502741809868953,0
sbt_20855,5.743419667725926,163.8,3.5063612135078914,1.6502732984403945,0
sbt_20854,5.743418368244118,163.8,3.5063604201734537,1.6502724657765115,0
rbt_635963,2.1715792319430447,61.95,3.505374062862057,1.6464963561851595,0
rbt_626481,3.122927311757393,90.3,3.4583912644046437,1.6256817701535777,0
rbt_1607306,2.633333734541766,76.65,3.435529986355859,1.615477263060306,0
rbt_605901,3.092723075286907,90.3,3.424942497549177,1.6093648666638176,0
rbt_605820,2.62044912009605,76.65,3.418720313236855,1.6080846602966457,0
rbt_3405847,3.0854381192058944,90.3,3.4168749935834937,1.6084211832900552,0
sbt_34000,7.347057601622802,216.3,3.3966979203064267,1.5966858714394572,0
rbt_1607289,2.6033607675738266,76.65,3.3964263112509148,1.5961217927650877,0
smt_6512,9.665486714439165,286.65,3.371877451400372,1.9936787191835943,0
smt_6425,9.665085359655523,286.65,3.3717374357772627,1.9935912848463857,0
smt_6930,9.664470480541588,286.65,3.3715229305918677,1.9934575381676842,0
sbt_20828,5.512199361486541,163.8,3.365201075388608,1.5817876164622076,0
smt_15243,5.478446253483181,163.8,3.344594782346264,1.9880375632186045,0
smt_26472,5.477982777128069,163.8,3.3443118297485155,1.9879281041082935,0
smt_14780,5.4774574618795615,163.8,3.3439911244685967,1.9878032878108305,0
smt_14754,5.476933265384961,163.8,3.3436711021886207,1.9876793774992791,0
smt_14729,5.476411677105231,163.8,3.3433526722254157,1.9920776198637498,0
smt_21229,5.47588217967091,163.8,3.343029413718504,1.9919545207178053,0
smt_26474,5.475383210410215,163.8,3.3427247926802286,1.9918384556875666,0
smt_22453,5.474943112386616,163.8,3.3424561125681413,1.9917396978167428,0
smt_14544,5.474414466811615,163.8,3.3421333741218646,1.9916193563760418,0
smt_14113,5.473886476825666,163.8,3.3418110359131052,1.9915011072223436,0
smt_22508,5.473307207188837,163.8,3.341457391446176,1.9913691675759886,0
smt_14452,5.472796506729138,163.8,3.3411456085037474,1.9912529157155907,0
smt_30311,5.4723679416063185,163.8,3.3408839692346266,1.9911601610596534,0
smt_26478,5.4718394201882985,163.8,3.3405613065862627,1.991040809591954,0
sbt_37537,7.2226448523015225,216.3,3.339179312205974,1.3285012724223844,0
sbt_37545,7.22263622607806,216.3,3.3391753241230044,1.3285018544839347,0
sbt_37546,7.222619543435844,216.3,3.3391676113896644,1.328500764443754,0
sbt_37539,7.2141080668726465,216.3,3.335232578304506,1.9040479511387882,0
sbt_37538,7.214102548662937,216.3,3.3352300271210984,1.9040484725329165,0
rbt_1609690,2.993768160986331,90.3,3.3153578748464354,1.5578378497474918,0
smt_22686,9.463277405797594,286.65,3.301335219186323,2.0467491040830414,0
smt_6239,9.462803256366639,286.65,3.301169808605142,2.0466429919257645,0
smt_23961,9.462340402776505,286.65,3.3010083386626565,2.0465395433357183,0
smt_37856,7.139783853616179,216.3,3.30087094480637,1.8336279849184798,0
smt_29407,9.461869532012292,286.65,3.300844071868932,2.046434440619,0
smt_6278,9.46144776806247,286.65,3.300696936355301,2.046340417076078,0
smt_6630,9.460955980234338,286.65,3.3005253724871233,2.046230924301669,0
smt_19070,9.460461809135202,286.65,3.3003529771970004,2.046121054216792,0
smt_6639,9.459967889440932,286.65,3.3001806696113496,2.0460113938405886,0
smt_19117,9.459506805387587,286.65,3.3000198169850297,2.045909162681254,0
smt_21514,9.454210608104516,286.65,3.298172198885232,2.0401132310739727,0
smt_5615,9.453734065817201,286.65,3.2980059535381834,2.040004977308696,0
smt_18742,9.453362916246142,286.65,3.2978764752297725,2.0399207620456203,0
smt_6270,9.452779961822303,286.65,3.2976731072116885,2.0397886591196763,0
smt_5967,9.45232651116225,286.65,3.2975149175518053,2.0396860482309083,0
smt_5772,9.451791554308143,286.65,3.2973282938455064,2.039565157138639,0
smt_6158,9.451262423175306,286.65,3.2971437024857164,2.0394457571736098,0
smt_6263,9.450804135563475,286.65,3.296983825418969,2.0393424838955276,0
smt_6384,9.450235735312445,286.65,3.296785534733105,2.0392145787869436,0
smt_22684,9.449679520619167,286.65,3.2965914950703534,2.0390896107970673,0
smt_22685,9.449225653118067,286.65,3.2964331599923486,2.0389877809419987,0
smt_29447,9.448749766591439,286.65,3.2962671434123285,2.0388811493505243,0
smt_19065,9.448239912220924,286.65,3.2960892768954904,2.0387670641092956,0
smt_24385,9.44766375620616,286.65,3.295888280553344,2.038638339584114,0
smt_29448,9.445505862710542,286.65,3.2951354832410753,2.0253772744011624,0
smt_6824,9.445041929005601,286.65,3.294973636492448,2.025269567792765,0
smt_6855,9.444544426397837,286.65,3.2948000789805816,2.0251542140727947,0
smt_19062,9.443963379852434,286.65,3.294597376540183,2.0250196813718606,0
smt_7054,9.443501492038703,286.65,3.294436243516031,2.024912885929836,0
smt_6446,9.443029526030028,286.65,3.29427159463807,2.0248038956851238,0
smt_39006,9.44254592495576,286.65,3.294102886780311,2.024692360850672,0
smt_39008,9.442108896748838,286.65,3.2939504262162353,2.024591691280075,0
smt_39007,9.442090477636572,286.65,3.2939440005709306,2.0245874507754125,0
smt_6122,9.441671035028715,286.65,3.2937976748748357,2.024490947774463,0
smt_18741,9.44114167731055,286.65,3.2936130044690572,2.0243693114974244,0
smt_5938,9.44065119404126,286.65,3.293441895706004,2.02425676274127,0
smt_5946,9.440084755368328,286.65,3.293244289331355,2.0241269706551503,0
sbt_34382,4.214413010440336,128.1,3.2899398988605277,1.5461053181569897,0
rbt_1625170,2.9691926746733674,90.3,3.2881424968697317,1.5451532821785305,0
rbt_605821,4.198412151617846,128.1,3.2774489864307927,1.5398976446250916,0
sbt_35105,4.188703894592104,128.1,3.269870331453633,1.5370028634897992,0
smt_856,5.341318401783461,163.8,3.2608781451669477,1.9475990826656198,0
smt_15622,5.340737478416873,163.8,3.260523491096992,1.947457955230434,0
smt_23196,5.3404145883387315,163.8,3.2603263665071616,1.9473837743314515,0
smt_15581,5.340068407597809,163.8,3.260115022953485,1.9473046611041502,0
smt_15568,5.339693649940251,163.8,3.2598862331747567,1.9472183313950302,0
rbt_605988,2.9300663592805307,90.3,3.244813243943002,1.5272685768450278,0
rbt_605804,1.9869293016785228,61.95,3.207311221434258,1.507357571159664,0
smt_23147,5.2383492215143415,163.8,3.198015397749903,1.9165413217926417,0
smt_16038,5.238032655429404,163.8,3.1978221339617847,1.9164823273580527,0
smt_13546,5.195447755691952,163.8,3.171824026673963,1.8980420779432883,0
smt_21225,5.195136110555321,163.8,3.1716337671277905,1.8979677949080764,0
smt_13930,5.194575403482346,163.8,3.171291455117427,1.8978265745523366,0
smt_21226,5.194018710023972,163.8,3.170951593421228,1.8976847335444498,0
smt_13280,5.193592773664533,163.8,3.170691559013756,1.8975783226408405,0
smt_14437,5.193187266466647,163.8,3.1704439966218843,1.897477957290319,0
sbt_6048,5.192992241413741,163.8,3.170324933708022,1.492080568319963,0
smt_13955,5.192778387576004,163.8,3.1701943758095257,1.8973772803042301,0
smt_26469,5.192364133842328,163.8,3.1699414736522145,1.8972744932236225,0
smt_20808,5.192002078339248,163.8,3.169720438546549,1.8971864396024272,0
smt_23095,5.191622938009725,163.8,3.16948897314391,1.897089898706114,0
smt_20807,5.191431734658574,163.8,3.169372243381302,1.8970484914926171,0
smt_13717,5.191028605546908,163.8,3.16912613281252,1.8969491959782472,0
rbt_605829,2.8563972357250154,90.3,3.16323060434664,1.487163857921897,0
smt_37925,6.8286164199417225,216.3,3.157011752169081,1.7629100969415605,0
smt_37924,6.828443987390535,216.3,3.156932033005332,1.7629054167669505,0
smt_37923,6.8280749862638785,216.3,3.1567614360905583,1.7628711075465866,0
smt_37864,6.827711251698752,216.3,3.156593274016991,1.762826622826185,0
smt_37863,6.827538934208921,216.3,3.156513608048507,1.762810891351165,0
smt_37862,6.8273668027365195,216.3,3.156434028079759,1.7628018519205073,0
smt_37861,6.827082492560909,216.3,3.156302585557517,1.7627797158515381,0
smt_37860,6.826738316218141,216.3,3.156143465657948,1.7627499605259933,0
smt_37859,6.8263753989320035,216.3,3.1559756814294975,1.7627120722819305,0
smt_37858,6.8261050026530325,216.3,3.1558506715917853,1.7626943916943076,0
smt_37831,6.825731134361728,216.3,3.155677824485311,1.7626495949624081,0
sbt_15045,6.825076054338287,216.3,3.1553749673316167,1.4843449231754688,0
smt_37898,6.807778974189759,216.3,3.1473781665232354,1.7556721554699335,0
smt_37897,6.807368485119473,216.3,3.14718838886707,1.7556201113032344,0
smt_37896,6.807011826028257,216.3,3.1470234979326195,1.7555779342575588,0
smt_14797,5.154547233758399,163.8,3.1468542330637352,1.8792120573962103,0
smt_37895,6.806629266876112,216.3,3.1468466328599685,1.7555316171092565,0
smt_37894,6.806252829736967,216.3,3.146672598121575,1.7554857072935868,0
smt_23041,5.154137348737142,163.8,3.1466039980080227,1.879108008837863,0
smt_37893,6.805896791299815,216.3,3.146507994128439,1.7554439022450345,0
smt_14823,5.153721951134061,163.8,3.1463503975177414,1.8790030466105359,0
smt_37892,6.805525148389498,216.3,3.146336175861996,1.7553993100869836,0
smt_37891,6.805166693226439,216.3,3.1461704545660836,1.755357973152642,0
smt_13752,5.153300517432246,163.8,3.146093111985498,1.8788888688331653,0
smt_37890,6.804785528370012,216.3,3.145994234105414,1.7553188476188017,0
smt_37889,6.8042705028422255,216.3,3.145756127065291,1.7552481453328044,0
smt_37888,6.804011687733955,216.3,3.1456364714442695,1.7552176771935024,0
smt_37887,6.803763911890646,216.3,3.145521919505615,1.7551948446680807,0
smt_37886,6.803380484894912,216.3,3.1453446532107776,1.755150230347559,0
smt_37885,6.803011052388777,216.3,3.1451738568602754,1.7551082273656065,0
smt_37884,6.80263785275802,216.3,3.145001318889514,1.755065929417848,0
smt_37883,6.802263407031163,216.3,3.1448282048225438,1.7550241813075234,0
smt_37882,6.80187771821022,216.3,3.1446498928387516,1.7549803538132418,0
smt_37881,6.801504802794537,216.3,3.1444774862665446,1.7549390280864348,0
smt_37880,6.801126333752677,216.3,3.14430251213716,1.7548960460825977,0
smt_37879,6.80077054775582,216.3,3.1441380248524364,1.754858525179391,0
smt_37878,6.800378264543829,216.3,3.1439566641441643,1.7548144849145055,0
smt_37877,6.8000092677901,216.3,3.1437860692510857,1.7547749586049513,0
smt_37876,6.7996267451307615,216.3,3.14360922104982,1.7547336677764,0
smt_37875,6.799242474731697,216.3,3.1434315648320372,1.7546924416144358,0
smt_37874,6.798856680237319,216.3,3.1432532039932126,1.7546507067694865,0
smt_37873,6.798481973741354,216.3,3.143079969367246,1.7546096296914724,0
smt_37945,6.798134126921416,216.3,3.14291915252955,1.75456800975158,0
smt_37944,6.797886158055026,216.3,3.1428045113523004,1.7545440511748598,0
smt_37943,6.797595817687216,216.3,3.1426702809464704,1.754516250020442,0
smt_37942,6.797254351182178,216.3,3.142512413861386,1.7544806204761212,0
smt_37941,6.796915764113397,216.3,3.142355877999721,1.7544454827986542,0
smt_37940,6.796580313295406,216.3,3.1422007920921895,1.754411393925179,0
smt_37939,6.796237791251651,216.3,3.1420424370095477,1.7543768036933944,0
smt_37938,6.795888038101091,216.3,3.1418807388354555,1.7543415375843538,0
smt_37937,6.7955342029951655,216.3,3.1417171534882873,1.7543055550073543,0
smt_37936,6.795186433080261,216.3,3.141556372205391,1.7542707308372254,0
smt_37935,6.79483849846868,216.3,3.141395514779787,1.75423433212508,0
smt_37934,6.794523774475121,216.3,3.1412500113153587,1.7542047565100412,0
smt_37933,6.7941798344973385,216.3,3.1410910006922506,1.754171046409593,0
smt_37932,6.7938339471547025,216.3,3.140931089761767,1.7541372661686314,0
smt_23225,5.140654124632303,163.8,3.1383724814605025,1.872212217566395,0
smt_21220,5.140189547673762,163.8,3.138088856943688,1.8720905314296556,0
smt_14845,5.139704173358344,163.8,3.1377925356278045,1.8719640016878596,0
smt_26425,5.139201644107638,163.8,3.137485741213454,1.8718333817013015,0
smt_20810,5.13870226065572,163.8,3.1371808673111845,1.8717030051641876,0
smt_26429,5.138281698184716,163.8,3.136924113665883,1.871594790473538,0
smt_26430,5.137864560156485,163.8,3.136669450644985,1.8714879655276795,0
smt_21222,5.124802331116009,163.8,3.128694951841275,1.865783658077107,0
smt_14301,5.124462180914298,163.8,3.1284872899354688,1.8656923786474529,0
smt_23277,5.124032415858233,163.8,3.128224918106369,1.8655759185953056,0
rbt_1607316,2.8245758174430073,90.3,3.1279909384750915,2.370384818328214,0
smt_26427,5.123628160379105,163.8,3.127978119889563,1.8654673947924845,0
smt_20812,5.123202093619221,163.8,3.12771800587254,1.8653532402165511,0
rbt_1107342,1.9375672934643962,61.95,3.1276308207657726,1.470668100127546,0
smt_15154,5.122775072347919,163.8,3.127457309125713,1.8652389962295948,0
smt_14674,5.1223723483442125,163.8,3.1272114458755875,1.8651331419570918,0
smt_37986,6.717891260238821,216.3,3.1058212021446234,1.7763193725496533,0
smt_37987,6.717626823605517,216.3,3.105698947575366,1.7762807913240497,0
smt_37993,6.717288972385395,216.3,3.1055427519118792,1.7762260765670599,0
smt_37920,6.717120054989582,216.3,3.1054646578777536,1.7762057857740647,0
smt_37919,6.716710030762582,216.3,3.1052750951283317,1.776143999310302,0
smt_37918,6.7163075237932786,216.3,3.105089007763883,1.7760833742107573,0
smt_37917,6.715922466617188,216.3,3.104910987802676,1.7760262534808373,0
smt_37916,6.71552571671596,216.3,3.1047275620508366,1.7759672509518893,0
smt_37915,6.715134348154218,216.3,3.1045466242044464,1.7759070572148736,0
smt_37914,6.714843606192573,216.3,3.104412208133413,1.7758663561586117,0
smt_37913,6.7144629487474425,216.3,3.1042362222595665,1.7758109939337186,0
smt_37912,6.714062362715455,216.3,3.1040510229844913,1.7757521784451162,0
smt_40685,6.7136743820299944,216.3,3.1038716514239453,1.7756952112471212,0
smt_37911,6.7133068634966016,216.3,3.10370173994295,1.7756333762312329,0
smt_37910,6.713285321633407,216.3,3.1036917806904327,1.7756395806940095,0
smt_37909,6.712890884387888,216.3,3.1035094241275485,1.7755825194864476,0
smt_37908,6.712504209454425,216.3,3.103330656243377,1.7755274751933932,0
smt_40683,6.712099868338753,216.3,3.1031437209148187,1.7754689560138124,0
smt_37906,6.711724018811762,216.3,3.1029699578417764,1.7754158469492756,0
smt_37905,6.7113345584051345,216.3,3.1027899021752816,1.7753599631038604,0
smt_37904,6.7109719763489535,216.3,3.1026222729306303,1.7753088543933464,0
smt_37903,6.710608301375852,216.3,3.1024541384076985,1.7752553450116888,0
smt_37963,6.66132864310957,216.3,3.079671124877286,1.7530213968071227,0
smt_37983,6.660826596977013,216.3,3.0794390184822067,1.7529386784307783,0
smt_37984,6.660316319037814,216.3,3.0792031063512777,1.7528547074115013,0
smt_37985,6.65981431394669,216.3,3.0789710189305084,1.7527724794520765,0
smt_37947,6.659320470286734,216.3,3.0787427047095393,1.752691332376637,0
smt_37948,6.6588687297433236,216.3,3.078533855637228,1.7526183599364493,0
sbt_22669,6.6575915790331335,216.3,3.077943402234458,1.4471456840530947,0
rbt_3405987,1.9060170276666364,61.95,3.0767022238363784,1.4485302170818601,0
rbt_1132012,2.767513401515004,90.3,3.0647988942580335,1.4404788925533414,0
rbt_1607268,2.3467117639318307,76.65,3.0615939516397006,1.4388243340296472,0
sbt_35588,6.604932062597379,216.3,3.0535978097999896,1.435098008178791,0
rbt_605823,2.754623482885935,90.3,3.0505243442812127,1.4346374243655362,0
smt_29426,6.581934133671782,216.3,3.0429653877354514,1.6323697267683464,0
sbt_21281,4.9456329013514075,163.8,3.0193119055869397,1.4186324902404743,0
rbt_605989,2.6918490341811823,90.3,2.981006682371188,1.40110082948919,0
rbt_1121173,2.686633067674048,90.3,2.9752304182436857,1.3995543078147035,0
rbt_605807,2.679602167445931,90.3,2.9674442607374654,1.3962483627955915,0
rbt_606130,2.25763172410846,76.65,2.9453773308655706,1.384017676046808,0
sbt_3491,4.8165182323238,163.8,2.9404873213210005,1.3822820889220455,0
rbt_637399,1.8108957628527138,61.95,2.923157002183557,1.3736727088219192,0
sbt_21191,4.778053759105527,163.8,2.9170047369386607,1.3715852863534777,0
sbt_26310,4.71459980966442,163.8,2.8782660620661904,1.3535488861688802,0
rbt_637705,2.5840463854499727,90.3,2.8616239041527938,2.1677891149824267,0
smt_37960,6.172707491607421,216.3,2.853771378459279,1.6664401132048727,0
smt_37962,6.172273372276911,216.3,2.8535706760411053,1.6663713939136686,0
rbt_1105833,2.5760888349242577,90.3,2.852811555840817,1.3410709294495675,0
smt_37981,6.152097159456679,216.3,2.8442427921667495,1.6413082052736951,0
smt_37951,6.151691529016798,216.3,2.844055260756726,1.641240595249914,0
smt_37952,6.151285186624763,216.3,2.843867400196377,1.6411747987632992,0
smt_37953,6.1507849631874825,216.3,2.8436361364713276,1.6410918332966664,0
smt_37954,6.150303055118539,216.3,2.8434133403229493,1.6429696110718115,0
smt_37955,6.149780077003527,216.3,2.8431715566359346,1.6428820935759854,0
smt_37956,6.149359559755615,216.3,2.842977142744158,1.6428150413940623,0
smt_37957,6.148862160559247,216.3,2.842747184724571,1.6427343566632489,0
smt_37958,6.14836756955985,216.3,2.842518524992996,1.64265478765023,0
smt_37959,6.147863521582725,216.3,2.8422854931034323,1.6425737733203014,0
rbt_1607276,2.5661897270827843,90.3,2.841849088685254,1.335392617574806,0
smt_25183,6.062206637016683,216.3,2.8026845293650866,1.5148277807585424,0
smt_25117,6.061563339783898,216.3,2.802387119641192,1.5145303288470486,0
smt_25116,6.060902033771973,216.3,2.802081384083205,1.5142248361462265,0
smt_25115,6.060384607809759,216.3,2.8018421672721954,1.5139860122707194,0
smt_25114,6.059930476041002,216.3,2.801632212686547,1.5137765497798734,0
smt_25113,6.059400489228141,216.3,2.801387188732381,1.5135322745060573,0
smt_25112,6.058840634939224,216.3,2.8011283564212777,1.5132744376478364,0
smt_25111,6.058473836037062,216.3,2.800958777640805,1.5131056252432586,0
smt_25110,6.058208896369471,216.3,2.800836290508308,1.5129837480048165,0
smt_25109,6.057510087030789,216.3,2.8005132163803923,1.5126625096785646,0
smt_25108,6.0569780257896575,216.3,2.800267233374784,1.5124181458412238,0
smt_25107,6.056261234816432,216.3,2.799935845962289,1.512089243341925,0
smt_25106,6.0556353732836135,216.3,2.7996464971260346,1.5118023500374702,0
smt_25105,6.0549951119539065,216.3,2.799350490963433,1.5115091324889984,0
smt_37979,6.054481922072001,216.3,2.7991132325806753,1.6309682213023045,0
smt_29427,6.054354512701525,216.3,2.7990543285721334,1.5112160409719253,0
smt_37980,6.054050866162648,216.3,2.798913946445977,1.6308793984242105,0
smt_6407,6.0530864540813765,216.3,2.7984680786321667,1.510636701374129,0
smt_22794,6.052455270301203,216.3,2.7981762692099874,1.510348745126338,0
smt_6477,6.051758645790477,216.3,2.7978542051735906,1.5100312542110663,0
smt_6641,6.0508535803184715,216.3,2.797435774534661,1.5096192688686372,0
smt_6157,6.050218048842466,216.3,2.797141955082046,1.509330316782566,0
smt_6694,6.049500243040244,216.3,2.796810098492947,1.509004297734144,0
rbt_1607319,2.5253314333408405,90.3,2.7966018087938433,1.9866111032204132,0
rbt_622709,2.5224099805963593,90.3,2.7933665344367213,1.313355205258688,0
rbt_1607328,2.5197770824805654,90.3,2.7904508111634168,1.31220501888493,0
rbt_607366,2.5187587802517535,90.3,2.7893231232023847,1.3108463207486698,0
smt_6074,7.935186463932417,286.65,2.7682492460953836,1.6279588234377194,0
smt_6082,7.934699183481293,286.65,2.768079254659443,1.627864144977509,0
smt_6649,7.934218903148761,286.65,2.767911705267316,1.6277710060970276,0
smt_29408,7.933749267553142,286.65,2.7677478693714086,1.6276802062931903,0
smt_6422,7.93327858257957,286.65,2.7675836673921403,1.6275894125959989,0
smt_22683,7.932805427578351,286.65,2.767418603725223,1.6274983146437403,0
smt_22793,7.9123079515799,286.65,2.7602679056619226,1.6132432258696274,0
smt_22790,7.911816529202094,286.65,2.7600964692838286,1.613144319866902,0
smt_6370,7.911342085900606,286.65,2.7599309561837106,1.613049090155781,0
smt_29449,7.9112579626019714,286.65,2.759901609140754,1.6137141210719659,0
smt_29409,7.9108651239268575,286.65,2.7597645644259057,1.6129536266158446,0
smt_6401,7.910783844845678,286.65,2.759736209609516,1.6136207318639169,0
smt_5650,7.910365373486498,286.65,2.7595902227407985,1.612853710407646,0
smt_21348,7.91030698817198,286.65,2.759569854586423,1.613529485503121,0
smt_6094,7.909871946696151,286.65,2.759418087108373,1.6127548486648013,0
smt_29477,7.909493017726185,286.65,2.759285894898373,1.6126797406656275,0
smt_29450,7.909029882675677,286.65,2.7591243267663277,1.6125879066972804,0
smt_6231,7.90852064449599,286.65,2.7589466752122767,1.6124868033620032,0
smt_6340,7.908043372442054,286.65,2.758780175280675,1.6123924473346818,0
sbt_21953,4.492544877296646,163.8,2.7427013902909922,1.2909127604233261,0
sbt_21849,4.492544804993974,163.8,2.7427013461501675,1.290912739426579,0
sbt_21968,4.492544717378567,163.8,2.7427012926609073,1.2909127140311305,0
smt_6581,7.838227056572057,286.65,2.7344242304455113,1.584321350610798,0
smt_6701,7.837747126485402,286.65,2.7342568032392824,1.5842288092124146,0
smt_21959,7.837220025692137,286.65,2.734072920178663,1.5841266141447015,0
smt_19219,7.826498263710136,286.65,2.730332553186861,1.5728787526105041,0
smt_5952,7.825992741209663,286.65,2.73015619787534,1.5727738773504436,0
smt_29478,7.825465504937794,286.65,2.7299722675519953,1.5726646558709285,0
smt_22841,7.825000902982487,286.65,2.729810187679221,1.572568698269805,0
smt_6660,7.824498985879079,286.65,2.729635090137478,1.5724651839475892,0
smt_22845,7.781298200705099,286.65,2.7145641725815803,1.5474714922623518,0
smt_18913,7.780712968053989,286.65,2.7143600097868448,1.5473495381695217,0
smt_5786,7.780145691938052,286.65,2.714162111263929,1.547231610532896,0
smt_29479,7.779657276598695,286.65,2.7139917239137263,1.547130340838458,0
smt_19224,7.779155280255522,286.65,2.713816598728597,1.5470264853868676,0
rbt_1633892,2.434840602419335,90.3,2.696390478869696,1.267405812958953,0
sbt_21137,4.413797410371552,163.8,2.6946260136578455,1.2674172280517624,0
rbt_1134165,2.427913321891806,90.3,2.688719071862465,1.2653278993777919,0
rbt_1131858,2.426619046101092,90.3,2.6872857653389723,1.2642732769369645,0
rbt_1607353,2.4061130489305835,90.3,2.664577019856682,1.2523769402241804,0
sbt_34390,4.348288767585803,163.8,2.65463294724408,2.0110170906940446,0
smt_37973,5.637915020604622,216.3,2.606525668333158,1.546141957488752,0
smt_37991,5.637727112159013,216.3,2.606438794340736,1.5461123148182854,0
smt_37974,5.637462233688678,216.3,2.606316335501007,1.5460722847120012,0
smt_37990,5.637010608312134,216.3,2.6061075396727387,1.5459972498443575,0
smt_37975,5.6365928686721585,216.3,2.6059144099270264,1.545929540892473,0
smt_37976,5.6361407485283985,216.3,2.6057053853575582,1.545855712172728,0
smt_37977,5.635694814693623,216.3,2.605499220847722,1.545782916353912,0
smt_37978,5.6352703742612675,216.3,2.6053029931859766,1.5457154603846648,0
smt_37970,5.5882514078057035,216.3,2.583565144616599,1.5347006341992309,0
smt_37971,5.587656830556555,216.3,2.5832902591569833,1.5345963561935256,0
smt_37972,5.58734941995907,216.3,2.583148136828049,1.5345486004987599,0
smt_37989,5.586910579028037,216.3,2.5829452515155045,1.5344910951211592,0
sbt_20633,4.163838344608423,163.8,2.542025851409293,1.6777451506617753,0
smt_37964,5.471403942437753,216.3,2.529544125029012,1.5077015266854286,0
smt_37965,5.4698506844670245,216.3,2.5288260214826743,1.5074449953872977,0
smt_37994,5.46964782447097,216.3,2.528732235076731,1.5074074926554488,0
smt_37995,5.469643023011136,216.3,2.5287300152617362,1.5074067626695884,0
smt_37996,5.469637242579544,216.3,2.5287273428476853,1.5074134702233886,0
smt_37966,5.469285752930689,216.3,2.528564841854225,1.5073581385124468,0
smt_37967,5.46885597319945,216.3,2.528366145723278,1.5072889280505952,0
smt_37968,5.468415201169817,216.3,2.5281623676235863,1.5072178780543304,0
smt_37969,5.467982507906194,216.3,2.5279623245058684,1.5071462876842034,0
sbt_4619,5.443882456456475,216.3,2.516820368218435,1.1830795463283832,0
rbt_606110,1.5131211397344853,61.95,2.442487715471324,1.1475886014992367,0
rbt_1607284,2.197129249319647,90.3,2.433144240664061,1.1439210874751893,0
rbt_1607302,1.4894104127759744,61.95,2.404213741365576,1.1295558571271958,0
rbt_607382,2.148003959955744,90.3,2.378741926861289,1.1184211543094766,0
rbt_1607273,1.822418008260624,76.65,2.3775838333471935,1.1172472767204396,0
sbt_26614,3.8514700372231228,162.75,2.366494646527264,1.7924448360092302,0
sbt_26512,3.8514684570801156,162.75,2.366493675625263,1.7924438519431147,0
sbt_16246,3.8514678806952736,162.75,2.3664933214717503,1.7924434936390863,0
sbt_5828,3.851465149664899,163.8,2.3513218251922456,1.7809517882719355,0
sbt_3790,3.8242452777682425,163.8,2.3347040767815885,1.0968345821185186,0
rbt_1137150,1.4375566016979648,61.95,2.3205110600451406,1.0909452592685223,0
rbt_3405843,2.0894010742473323,90.3,2.313843936043557,1.0881273901067972,0
rbt_1607288,1.756382792021786,76.65,2.291432213987979,1.0770449188782312,0
rbt_605817,1.747225686101621,76.65,2.279485565690308,1.0714981667919525,0
smt_13591,3.7105266303051403,163.8,2.265278773080061,1.1230708621552694,0
sbt_30492,2.820200768174195,124.95,2.2570634399153224,1.06075247108409,0
rbt_607387,2.0278306794122978,90.3,2.2456596671232534,1.0553755965079181,0
sbt_21147,2.8731772387592898,128.1,2.2429174385318422,1.0539979578395737,0
sbt_17923,2.87317177446778,128.1,2.2429131728866354,1.053993649913684,0
rbt_626695,2.018751091666598,90.3,2.235604752676188,1.6935857837364294,0
rbt_623432,2.018721667489889,90.3,2.2355721677628893,1.0512143726663885,0
sbt_3473,3.6373678308507635,163.8,2.2206152813496725,1.0438833355025066,0
sbt_26790,4.79065616112893,216.3,2.2148202316823533,1.041473031813559,0
smt_18691,6.3376133879079966,286.65,2.210923909962671,1.1613506687882356,0
smt_18692,6.336906338971286,286.65,2.210677250644091,1.1611619169744116,0
smt_22142,6.3362760769445305,286.65,2.210457379014314,1.160994059783735,0
smt_29410,6.335704104415361,286.65,2.210257842112458,1.1608420506195207,0
smt_4821,6.335158424777544,286.65,2.2100674776827294,1.1606973171114483,0
smt_18693,6.334493900284759,286.65,2.2098356533349937,1.160521442490877,0
smt_5832,6.3338815377205036,286.65,2.209622026066808,1.1603597443369116,0
smt_18694,6.333240326045392,286.65,2.20939833457017,1.1601908110483887,0
smt_5643,6.332675217445972,286.65,2.2092011922016304,1.1600422532864954,0
smt_29483,6.332113578334825,286.65,2.2090052601900663,1.159894910443908,0
smt_6014,6.331557323767126,286.65,2.208811206616824,1.1597492785920314,0
smt_18695,6.33091564342806,286.65,2.208587351623255,1.1595816514188353,0
smt_29482,6.330345131607368,286.65,2.2083883243004947,1.1594329492518811,0
smt_6195,6.3297471875898985,286.65,2.208179727050375,1.1592774348895962,0
smt_6105,6.329147113524631,286.65,2.2079703867171228,1.1591217151585083,0
smt_19334,6.284508115677343,286.65,2.1923977378954627,1.1376354535556572,0
smt_19331,6.283886891531156,286.65,2.1921810191980313,1.137442119196697,0
smt_22269,6.283276767184806,286.65,2.1919681727489295,1.1372525300831418,0
sbt_34896,4.684030479327854,216.3,2.1655249557687717,1.0179921599057928,0
sbt_34381,3.4982558746431263,163.8,2.135687347156976,1.004019330729511,0
smt_29480,6.081201194514079,286.65,2.1214725953302214,1.1653692573055279,0
smt_19271,6.080011615822341,286.65,2.1210576018916245,1.1650968058101465,0
smt_5537,6.079539266193323,286.65,2.120892819184833,1.1649890274771555,0
smt_19274,6.05682306803069,286.65,2.112968103272524,1.1512752087751212,0
smt_4942,6.056268793939363,286.65,2.1127747406033013,1.1511471600889727,0
smt_18740,6.055727909928102,286.65,2.1125860491638244,1.151022512090521,0
smt_5191,6.055189465388355,286.65,2.1123982087522606,1.1508987284983676,0
smt_5198,6.054656049689281,286.65,2.112212122689441,1.1507763990802988,0
smt_5549,6.054068095488819,286.65,2.112007010461824,1.1506419068563656,0
smt_19273,6.053466678873619,286.65,2.11179720176997,1.1505047100034858,0
smt_5414,6.052961757658534,286.65,2.1116210562213618,1.1503898195360687,0
smt_5522,6.052400280869874,286.65,2.111425180837214,1.1502623757609862,0
smt_40861,6.023718559299491,286.65,2.101419347392113,1.1328212581919181,0
smt_40860,6.023356774213688,286.65,2.1012931359545397,1.132737390784938,0
smt_40859,6.02297642730415,286.65,2.1011604490856968,1.1326493693392672,0
smt_40858,6.022590771927009,286.65,2.101025910318161,1.1325602754251902,0
smt_40857,6.022117406474793,286.65,2.100860773233837,1.1324511340212824,0
smt_40856,6.021640257231955,286.65,2.100694316145807,1.1323413607228563,0
smt_40855,6.021174542693223,286.65,2.10053184813997,1.1322344515705915,0
smt_40854,6.0207340876543425,286.65,2.100378192099893,1.1321335535559716,0
smt_40853,6.02025850884977,286.65,2.1002122828710172,1.1320248420721344,0
smt_40852,6.019780082314173,286.65,2.100045380189839,1.1319157238387343,0
smt_22899,6.018266736942172,286.65,2.0995174383192645,1.1239917407746185,0
smt_5757,6.0179684897311745,286.65,2.0994133925453253,1.1241875955029108,0
smt_5956,6.017699185015657,286.65,2.099319443577763,1.1238446978031178,0
smt_6028,6.0173773846467835,286.65,2.0992071811082447,1.1240352445086532,0
smt_22898,6.016776900139635,286.65,2.0989976975892675,1.1238808291672655,0
smt_16985,6.016288479462568,286.65,2.0988273083769644,1.1237555124224838,0
smt_6106,6.01572597466945,286.65,2.09863107436576,1.123611493846226,0
smt_6021,6.015168737333901,286.65,2.0984366779465904,1.1234691343198777,0
smt_6212,6.014626878544966,286.65,2.0982476464486193,1.1233310006641022,0
smt_6044,6.01406383506517,286.65,2.098051224512531,1.1231877775958254,0
smt_6029,6.013514833193848,286.65,2.097859701096755,1.1230484324608,0
smt_19276,6.0129662122836605,286.65,2.0976683105821246,1.1229094867991363,0
smt_22896,6.0123397704530515,286.65,2.0974497716563936,1.1227512029877185,0
smt_6693,6.011916945533385,286.65,2.0973022660154843,1.1226445925738942,0
smt_41231,6.011899804427466,286.65,2.097296286212268,1.1226402742949866,0
smt_41232,6.011302682730496,286.65,2.0970879758348144,1.122490034576287,0
rbt_605808,1.8934665966616193,90.3,2.0968622332908295,0.9852274304958061,0
smt_40865,6.003060399611372,286.65,2.094212593619875,1.1204535128204567,0
smt_40864,6.002596177119457,286.65,2.0940506461257486,1.1203409113174057,0
smt_40863,6.0021252767333575,286.65,2.093886368998206,1.1202269236001459,0
smt_40862,6.001654558715866,286.65,2.093722155491319,1.120113215707627,0
rbt_1607326,1.8896435198078725,90.3,2.092628482622229,0.9839310950130001,0
smt_40375,3.414661792815019,163.8,2.0846531091666782,1.0378167306485566,0
smt_40374,3.4141111142119454,163.8,2.084316919543312,1.0374881421742381,0
smt_40358,3.4135632512907574,163.8,2.083982448895456,1.0371619122524398,0
smt_40357,3.4129863884219342,163.8,2.0836302737618646,1.0368191494171826,0
smt_40356,3.4125005030176565,163.8,2.0833336404259195,1.0365310320635583,0
smt_40355,3.4119455665579683,163.8,2.0829948513784906,1.0362026305263792,0
...